opendss_networks/LV32_100bus/Loads.dss
new load.Ld279_LOAD_A phases=1 bus1=B1728.1.4 kv=0.249992666559  vminpu=0.1 vmaxpu=2
new load.Ld452_LOAD_B phases=1 bus1=B456.2.4 kv=0.249992666559  vminpu=0.1 vmaxpu=2
new load.Ld498_LOAD_C phases=1 bus1=B1933.3.4 kv=0.249992666559  vminpu=0.1 vmaxpu=2
new load.Ld969_LOAD_A phases=1 bus1=B2023.1.4 kv=0.249992666559  vminpu=0.1 vmaxpu=2
new load.Ld971_LOAD_B phases=1 bus1=B2538.2.4 kv=0.249992666559  vminpu=0.1 vmaxpu=2
new load.Ld1031_LOAD_C phases=1 bus1=B2702.3.4 kv=0.249992666559  vminpu=0.1 vmaxpu=2
new load.Ld1396_LOAD_A phases=1 bus1=B387.1.4 kv=0.249992666559  vminpu=0.1 vmaxpu=2
new load.Ld1441_LOAD_B phases=1 bus1=B2164.2.4 kv=0.249992666559  vminpu=0.1 vmaxpu=2
new load.Ld2010_LOAD_C phases=1 bus1=B280.3.4 kv=0.249992666559  vminpu=0.1 vmaxpu=2
new load.Ld2273_LOAD_A phases=1 bus1=B2781.1.4 kv=0.249992666559  vminpu=0.1 vmaxpu=2
new load.Ld3043_LOAD_B phases=1 bus1=B1071.2.4 kv=0.249992666559  vminpu=0.1 vmaxpu=2
new load.Ld3398_LOAD_C phases=1 bus1=B1686.3.4 kv=0.249992666559  vminpu=0.1 vmaxpu=2
new load.Ld3519_LOAD_A phases=1 bus1=B2409.1.4 kv=0.249992666559  vminpu=0.1 vmaxpu=2
new load.Ld3623_LOAD_B phases=1 bus1=B1687.2.4 kv=0.249992666559  vminpu=0.1 vmaxpu=2
new load.Ld3627_LOAD_C phases=1 bus1=B2045.3.4 kv=0.249992666559  vminpu=0.1 vmaxpu=2
new load.Ld3772_LOAD_A phases=1 bus1=B2978.1.4 kv=0.249992666559  vminpu=0.1 vmaxpu=2
new load.Ld3880_LOAD_B phases=1 bus1=B2586.2.4 kv=0.249992666559  vminpu=0.1 vmaxpu=2
new load.Ld3966_LOAD_C phases=1 bus1=B1554.3.4 kv=0.249992666559  vminpu=0.1 vmaxpu=2
new load.Ld4049_LOAD_A phases=1 bus1=B1197.1.4 kv=0.249992666559  vminpu=0.1 vmaxpu=2
new load.Ld4060_LOAD_B phases=1 bus1=B591.2.4 kv=0.249992666559  vminpu=0.1 vmaxpu=2
new load.Ld4469_LOAD_C phases=1 bus1=B219.3.4 kv=0.249992666559  vminpu=0.1 vmaxpu=2
new load.Ld4613_LOAD_A phases=1 bus1=B676.1.4 kv=0.249992666559  vminpu=0.1 vmaxpu=2
